          48
SI-0068-C2V                            
ZR      0.00000   0.00000   0.00000
C       1.76272   0.00000   1.40682
C      -1.76272   0.00000   1.40682
C      -0.00000   1.40024  -2.09325
C      -1.15625   1.79226  -1.33756
C      -0.72616   2.53740  -0.18681
C       0.72616   2.53740  -0.18681
C       1.15625   1.79226  -1.33756
C       0.00000  -1.40024  -2.09325
C      -1.15625  -1.79226  -1.33756
C      -0.72616  -2.53740  -0.18681
C       0.72616  -2.53740  -0.18681
C       1.15625  -1.79226  -1.33756
SI     -0.00000   0.00000  -3.36574
C       1.58846   0.00000  -4.38748
C      -1.58846   0.00000  -4.38748
H       2.19452  -1.59553  -1.61382
H       2.19452   1.59553  -1.61382
H      -2.53102  -3.20804   0.85955
H      -2.53102   3.20804   0.85955
C      -1.43648  -3.20862   0.85354
C      -1.43648   3.20862   0.85354
H      -1.24626  -4.37816   2.64616
H      -1.24626   4.37816   2.64616
C      -0.71640  -3.85487   1.84309
C      -0.71640   3.85487   1.84309
H       1.24626  -4.37816   2.64616
H       1.24626   4.37816   2.64616
C       0.71640  -3.85487   1.84309
C       0.71640   3.85487   1.84309
H       2.53102  -3.20804   0.85955
H       2.53102   3.20804   0.85955
C       1.43648  -3.20862   0.85354
C       1.43648   3.20862   0.85354
H      -2.47324   0.00000  -3.72118
H      -1.64723  -0.89813  -5.03249
H      -1.64723   0.89813  -5.03249
H       1.64723   0.89813  -5.03249
H       1.64723  -0.89813  -5.03249
H       2.47324   0.00000  -3.72118
H      -2.19452   1.59553  -1.61382
H      -2.19452  -1.59553  -1.61382
H       2.76561   0.00000   0.93244
H       1.68490  -0.90251   2.04981
H       1.68490   0.90252   2.04981
H      -2.76561   0.00000   0.93244
H      -1.68490  -0.90251   2.04981
H      -1.68490   0.90252   2.04981
